<?xml version="1.0" encoding="UTF-8"?>
<configuration>
    <input>
        <net-file value="../../networks/provins/provins.net.xml"/>
        <!--<route-files value="visualization_similarity_measure_shortest_path.rou.xml"/>-->
        <route-files value="visualization_k_prototypes_shortest_path.rou.xml"/>
        <!--route-files value="visualization_with_spatial.rou.xml"/>-->
    </input>
</configuration>