<routes>
    <vType id="klaster_car" vClass="passenger"/>

    <trip id="auto_72" type="klaster_car" depart="2" from="-328471845#0" to="157555049" color="255,20,147"/>
    <trip id="auto_387" type="klaster_car" depart="6" from="-165171783#1" to="-698024153" color="255,20,147"/>
    <trip id="auto_219" type="klaster_car" depart="8" from="-36950518#1" to="36936590#5" color="165,42,42"/>
    <trip id="auto_124" type="klaster_car" depart="8" from="-319058602#0" to="-37052277#2" color="255,20,147"/>
    <trip id="auto_479" type="klaster_car" depart="17" from="-156460683#8" to="-35801597#3" color="0,0,255"/>
    <trip id="auto_300" type="klaster_car" depart="17" from="-1299820133" to="36935040#2" color="0,0,255"/>
    <trip id="auto_322" type="klaster_car" depart="21" from="-734943619" to="-35802097#2" color="0,0,255"/>
    <trip id="auto_244" type="klaster_car" depart="21" from="36936327" to="269702544" color="0,0,255"/>
    <trip id="auto_133" type="klaster_car" depart="29" from="-36950439#0" to="36936407#1" color="255,165,0"/>
    <trip id="auto_486" type="klaster_car" depart="34" from="-156460683#0" to="-36933307#1" color="0,0,255"/>
    <trip id="auto_179" type="klaster_car" depart="34" from="-394446871#1" to="36936590#6" color="165,42,42"/>
    <trip id="auto_366" type="klaster_car" depart="35" from="-153730011" to="-328471845#0" color="255,20,147"/>
    <trip id="auto_462" type="klaster_car" depart="37" from="-698024153" to="698024155#0" color="255,20,147"/>
    <trip id="auto_297" type="klaster_car" depart="39" from="-1299820133" to="-36933307#1" color="0,0,255"/>
    <trip id="auto_6" type="klaster_car" depart="43" from="-859784039#0" to="-1119245060#0" color="255,20,147"/>
    <trip id="auto_187" type="klaster_car" depart="49" from="319058612#1" to="1119245069" color="255,20,147"/>
    <trip id="auto_372" type="klaster_car" depart="50" from="-165170818#5" to="-698026762" color="255,20,147"/>
    <trip id="auto_73" type="klaster_car" depart="51" from="-36934835#0" to="36950506#0" color="0,255,0"/>
    <trip id="auto_499" type="klaster_car" depart="56" from="-187827282#1" to="36934835#2" color="0,0,255"/>
    <trip id="auto_432" type="klaster_car" depart="67" from="36289159#2" to="-243836884#4" color="165,42,42"/>
    <trip id="auto_278" type="klaster_car" depart="72" from="-394456385#1" to="-156460683#8" color="0,0,255"/>
    <trip id="auto_197" type="klaster_car" depart="76" from="36936396#0" to="319058612#1" color="255,20,147"/>
    <trip id="auto_463" type="klaster_car" depart="77" from="165170685#0" to="-650145324#1" color="255,0,0"/>
    <trip id="auto_126" type="klaster_car" depart="78" from="-394456356#1" to="-319779150#2" color="0,0,128"/>
    <trip id="auto_160" type="klaster_car" depart="79" from="37050515#1" to="-36950439#1" color="0,0,255"/>
    <trip id="auto_466" type="klaster_car" depart="87" from="165170685#0" to="-165171782" color="255,20,147"/>
    <trip id="auto_305" type="klaster_car" depart="87" from="156467000#0" to="-156460683#0" color="0,0,255"/>
    <trip id="auto_461" type="klaster_car" depart="89" from="-394443146" to="1239117013#2" color="255,0,0"/>
    <trip id="auto_437" type="klaster_car" depart="94" from="-36933126#1" to="36936590#6" color="165,42,42"/>
    <trip id="auto_166" type="klaster_car" depart="98" from="-476687231#1" to="918716574#0" color="0,0,255"/>
    <trip id="auto_212" type="klaster_car" depart="100" from="-156460683#5" to="610135147#1" color="255,127,80"/>
    <trip id="auto_82" type="klaster_car" depart="101" from="-36950657#0" to="48956586#5" color="0,0,255"/>
    <trip id="auto_261" type="klaster_car" depart="101" from="1119245067" to="36936423#4" color="0,0,255"/>
    <trip id="auto_169" type="klaster_car" depart="101" from="-153730010#2" to="-156460683#5" color="255,20,147"/>
    <trip id="auto_234" type="klaster_car" depart="104" from="-156460672" to="698024155#0" color="255,127,80"/>
    <trip id="auto_292" type="klaster_car" depart="106" from="-319058604#1" to="610135147#1" color="255,127,80"/>
    <trip id="auto_382" type="klaster_car" depart="109" from="610135147#0" to="-243836884#1" color="255,0,0"/>
    <trip id="auto_245" type="klaster_car" depart="110" from="36936727#1" to="36288851#0" color="255,20,147"/>
    <trip id="auto_505" type="klaster_car" depart="112" from="-156460683#8" to="-394446873#2" color="0,0,255"/>
    <trip id="auto_22" type="klaster_car" depart="112" from="1119245066#1" to="-243836890#2" color="0,0,255"/>
    <trip id="auto_277" type="klaster_car" depart="112" from="-697627694#1" to="-698026762" color="255,127,80"/>
    <trip id="auto_423" type="klaster_car" depart="115" from="-165170818#3" to="36936262#1" color="255,20,147"/>
    <trip id="auto_340" type="klaster_car" depart="116" from="-165170681#0" to="-1119245060#0" color="255,20,147"/>
    <trip id="auto_368" type="klaster_car" depart="118" from="-153730010#2" to="-153730017" color="255,20,147"/>
    <trip id="auto_464" type="klaster_car" depart="118" from="165170685#0" to="187827287" color="255,20,147"/>
    <trip id="auto_45" type="klaster_car" depart="122" from="-157555050#0" to="-153730010#2" color="0,0,128"/>
    <trip id="auto_279" type="klaster_car" depart="126" from="610135147#1" to="36936423#4" color="255,20,147"/>
    <trip id="auto_54" type="klaster_car" depart="131" from="-153730015#3" to="218916675" color="255,165,0"/>
    <trip id="auto_509" type="klaster_car" depart="132" from="37053056#2" to="-165170994#4" color="0,128,128"/>
    <trip id="auto_69" type="klaster_car" depart="133" from="-153730010#2" to="-394456402#1" color="255,20,147"/>
    <trip id="auto_59" type="klaster_car" depart="136" from="-36294081#2" to="-165170994#3" color="0,255,255"/>
    <trip id="auto_471" type="klaster_car" depart="139" from="165170685#1" to="-36933151#0" color="255,20,147"/>
    <trip id="auto_10" type="klaster_car" depart="142" from="918716574#2" to="-156460683#5" color="255,165,0"/>
    <trip id="auto_346" type="klaster_car" depart="144" from="36288851#0" to="-650145324#1" color="255,165,0"/>
    <trip id="auto_383" type="klaster_car" depart="150" from="36936727#1" to="698024155#1" color="255,127,80"/>
    <trip id="auto_256" type="klaster_car" depart="159" from="-36294081#3" to="36936590#5" color="165,42,42"/>
    <trip id="auto_325" type="klaster_car" depart="167" from="-36288851#1" to="36936327" color="255,127,80"/>
    <trip id="auto_183" type="klaster_car" depart="172" from="-153730017" to="-37054066" color="255,20,147"/>
    <trip id="auto_33" type="klaster_car" depart="175" from="-36934835#0" to="319058646#0" color="255,127,80"/>
    <trip id="auto_123" type="klaster_car" depart="176" from="153730020#1" to="1239117012#1" color="255,20,147"/>
    <trip id="auto_194" type="klaster_car" depart="184" from="37050033#1" to="-37052277#2" color="255,20,147"/>
    <trip id="auto_210" type="klaster_car" depart="184" from="-394456385#0" to="-36950506#1" color="255,165,0"/>
    <trip id="auto_496" type="klaster_car" depart="185" from="-156460691" to="918716574#0" color="255,165,0"/>
    <trip id="auto_450" type="klaster_car" depart="186" from="-319779153" to="-165172642#0" color="165,42,42"/>
    <trip id="auto_39" type="klaster_car" depart="188" from="-36293459#6" to="-156460683#5" color="0,0,255"/>
    <trip id="auto_184" type="klaster_car" depart="193" from="157555049" to="36935232" color="255,127,80"/>
    <trip id="auto_519" type="klaster_car" depart="196" from="-35802071#0" to="-165170994#4" color="0,128,128"/>
    <trip id="auto_74" type="klaster_car" depart="211" from="-153732963#0" to="-710478296" color="255,165,0"/>
    <trip id="auto_431" type="klaster_car" depart="211" from="406210869#0" to="-165170994#4" color="0,255,255"/>
    <trip id="auto_282" type="klaster_car" depart="214" from="-36936288" to="36936396#3" color="255,127,80"/>
    <trip id="auto_221" type="klaster_car" depart="214" from="-36950506#2" to="-36933126#1" color="255,127,80"/>
    <trip id="auto_32" type="klaster_car" depart="220" from="-156460683#0" to="1119245060#2" color="255,127,80"/>
    <trip id="auto_478" type="klaster_car" depart="223" from="-35801597#3" to="37054132" color="255,165,0"/>
    <trip id="auto_289" type="klaster_car" depart="225" from="-394443147#0" to="36936655#4" color="255,0,0"/>
    <trip id="auto_314" type="klaster_car" depart="226" from="-165172642#1" to="-156460681#1" color="255,20,147"/>
    <trip id="auto_370" type="klaster_car" depart="231" from="-165172165#1" to="-35802071#2" color="255,0,0"/>
    <trip id="auto_522" type="klaster_car" depart="238" from="394446873#1" to="-36933151#0" color="255,127,80"/>
    <trip id="auto_49" type="klaster_car" depart="239" from="39820659#3" to="1119245067" color="255,165,0"/>
    <trip id="auto_119" type="klaster_car" depart="240" from="37054132" to="-37054066" color="255,127,80"/>
    <trip id="auto_521" type="klaster_car" depart="241" from="-698024153" to="36288851#0" color="255,127,80"/>
    <trip id="auto_393" type="klaster_car" depart="241" from="-243836884#5" to="-165171783#1" color="255,0,0"/>
    <trip id="auto_335" type="klaster_car" depart="242" from="-165171782" to="-1119245057#3" color="255,20,147"/>
    <trip id="auto_275" type="klaster_car" depart="244" from="36934854#1" to="610135147#1" color="255,127,80"/>
    <trip id="auto_444" type="klaster_car" depart="246" from="-36289599#0" to="-319058629" color="0,0,128"/>
    <trip id="auto_329" type="klaster_car" depart="248" from="36936480#1" to="36935232" color="255,20,147"/>
    <trip id="auto_310" type="klaster_car" depart="249" from="37050515#1" to="36288851#0" color="0,0,255"/>
    <trip id="auto_458" type="klaster_car" depart="251" from="-394443147#0" to="-650145324#1" color="255,0,0"/>
    <trip id="auto_127" type="klaster_car" depart="255" from="36935232" to="-157553230" color="255,127,80"/>
    <trip id="auto_254" type="klaster_car" depart="259" from="36936655#6" to="156467000#3" color="255,165,0"/>
    <trip id="auto_153" type="klaster_car" depart="259" from="-36293752#6" to="36935040#2" color="0,0,255"/>
    <trip id="auto_227" type="klaster_car" depart="262" from="36284386#0" to="-1339510610" color="255,127,80"/>
    <trip id="auto_510" type="klaster_car" depart="263" from="698018293" to="-165171782" color="0,128,128"/>
    <trip id="auto_105" type="klaster_car" depart="265" from="-157555050#0" to="918716574#1" color="255,165,0"/>
    <trip id="auto_134" type="klaster_car" depart="268" from="-156460683#5" to="-36294383#6" color="255,127,80"/>
    <trip id="auto_258" type="klaster_car" depart="269" from="-394456379" to="36936423#2" color="255,165,0"/>
    <trip id="auto_348" type="klaster_car" depart="272" from="-36294081#0" to="-165170994#1" color="0,255,255"/>
    <trip id="auto_154" type="klaster_car" depart="272" from="-1119245070" to="-156460683#5" color="255,127,80"/>
    <trip id="auto_408" type="klaster_car" depart="273" from="319058646#1" to="-710478296" color="255,0,0"/>
    <trip id="auto_81" type="klaster_car" depart="278" from="-153730008#2" to="-165172642#0" color="255,0,0"/>
    <trip id="auto_332" type="klaster_car" depart="278" from="-36288941#2" to="-610220874#1" color="255,165,0"/>
    <trip id="auto_511" type="klaster_car" depart="284" from="35801597#4" to="156467000#0" color="255,0,0"/>
    <trip id="auto_213" type="klaster_car" depart="287" from="36936749#4" to="319058612#1" color="255,20,147"/>
    <trip id="auto_285" type="klaster_car" depart="289" from="39820659#2" to="156467000#0" color="255,165,0"/>
    <trip id="auto_281" type="klaster_car" depart="293" from="36936423#3" to="610135147#1" color="255,127,80"/>
    <trip id="auto_357" type="klaster_car" depart="297" from="-153730015#3" to="-153730017" color="255,127,80"/>
    <trip id="auto_131" type="klaster_car" depart="305" from="-36936288" to="-153730010#2" color="255,127,80"/>
    <trip id="auto_222" type="klaster_car" depart="307" from="-36950439#0" to="1239117012#5" color="165,42,42"/>
    <trip id="auto_35" type="klaster_car" depart="308" from="-319058589#1" to="39820659#3" color="0,0,128"/>
    <trip id="auto_374" type="klaster_car" depart="314" from="36936373#0" to="610135147#1" color="255,127,80"/>
    <trip id="auto_395" type="klaster_car" depart="317" from="-165172165#0" to="-243836884#5" color="255,0,0"/>
    <trip id="auto_236" type="klaster_car" depart="319" from="-37053056#5" to="610135147#1" color="255,127,80"/>
    <trip id="auto_403" type="klaster_car" depart="323" from="-165171446" to="-165172642#0" color="255,0,0"/>
    <trip id="auto_91" type="klaster_car" depart="325" from="-710476024#1" to="157553231" color="255,165,0"/>
    <trip id="auto_94" type="klaster_car" depart="331" from="153730941#1" to="-394446871#1" color="0,0,128"/>
    <trip id="auto_231" type="klaster_car" depart="333" from="269702544" to="319058612#1" color="255,165,0"/>
    <trip id="auto_321" type="klaster_car" depart="334" from="187827276" to="37640679#0" color="255,0,0"/>
    <trip id="auto_21" type="klaster_car" depart="339" from="-36294081#2" to="-156460683#0" color="255,165,0"/>
    <trip id="auto_283" type="klaster_car" depart="340" from="-394443152#1" to="-37052277#2" color="255,20,147"/>
    <trip id="auto_17" type="klaster_car" depart="350" from="-153730010#1" to="165172163" color="255,127,80"/>
    <trip id="auto_445" type="klaster_car" depart="350" from="159922990" to="-165170994#4" color="0,255,255"/>
    <trip id="auto_201" type="klaster_car" depart="350" from="-36288941#1" to="1119245067" color="255,165,0"/>
    <trip id="auto_117" type="klaster_car" depart="353" from="36936373#4" to="36936423#6" color="255,165,0"/>
    <trip id="auto_129" type="klaster_car" depart="354" from="48955996" to="-153730015#1" color="0,0,128"/>
    <trip id="auto_363" type="klaster_car" depart="356" from="-153730010#2" to="319058608#0" color="0,0,128"/>
    <trip id="auto_434" type="klaster_car" depart="358" from="36936373#0" to="-243836884#5" color="165,42,42"/>
    <trip id="auto_206" type="klaster_car" depart="367" from="270968324" to="319058612#1" color="255,165,0"/>
    <trip id="auto_457" type="klaster_car" depart="370" from="-36289599#1" to="-165170994#4" color="165,42,42"/>
    <trip id="auto_506" type="klaster_car" depart="370" from="-156480737#1" to="-394446873#0" color="0,0,255"/>
    <trip id="auto_136" type="klaster_car" depart="371" from="-36294383#4" to="-650145324#1" color="0,0,128"/>
    <trip id="auto_394" type="klaster_car" depart="373" from="-698024153" to="-243836884#1" color="255,0,0"/>
    <trip id="auto_369" type="klaster_car" depart="374" from="36936749#2" to="-328471845#0" color="255,20,147"/>
    <trip id="auto_409" type="klaster_car" depart="374" from="-165172642#0" to="165170685#1" color="255,165,0"/>
    <trip id="auto_202" type="klaster_car" depart="378" from="36936590#6" to="165170685#1" color="255,0,0"/>
    <trip id="auto_518" type="klaster_car" depart="379" from="36288851#0" to="-35802097#1" color="255,165,0"/>
    <trip id="auto_412" type="klaster_car" depart="381" from="-165170681#0" to="-319779150#2" color="255,0,0"/>
    <trip id="auto_443" type="klaster_car" depart="383" from="36950518#0" to="-165170815#0" color="0,255,255"/>
    <trip id="auto_14" type="klaster_car" depart="383" from="-37052381#2" to="-35802097#3" color="255,165,0"/>
    <trip id="auto_257" type="klaster_car" depart="385" from="650145330#2" to="-37088673#0" color="0,0,128"/>
    <trip id="auto_240" type="klaster_car" depart="387" from="-35801597#3" to="-328471845#0" color="0,255,0"/>
    <trip id="auto_413" type="klaster_car" depart="387" from="-165170994#4" to="-165171782" color="255,165,0"/>
    <trip id="auto_141" type="klaster_car" depart="391" from="-156480737#3" to="1119245067" color="165,42,42"/>
    <trip id="auto_41" type="klaster_car" depart="396" from="-243836884#1" to="36936327" color="255,127,80"/>
    <trip id="auto_474" type="klaster_car" depart="397" from="-36293459#0" to="36936423#2" color="0,0,255"/>
    <trip id="auto_16" type="klaster_car" depart="399" from="-859784039#0" to="36936373#3" color="255,165,0"/>
    <trip id="auto_406" type="klaster_car" depart="401" from="36936407#2" to="-319058613#0" color="0,128,128"/>
    <trip id="auto_122" type="klaster_car" depart="402" from="-156460683#5" to="-1057740876" color="0,0,255"/>
    <trip id="auto_354" type="klaster_car" depart="409" from="-35802071#1" to="-650145330#0" color="255,127,80"/>
    <trip id="auto_362" type="klaster_car" depart="417" from="36289394#2" to="610135147#1" color="255,127,80"/>
    <trip id="auto_215" type="klaster_car" depart="424" from="-157553230" to="36936373#1" color="255,165,0"/>
    <trip id="auto_315" type="klaster_car" depart="428" from="319058608#0" to="-710478296" color="255,165,0"/>
    <trip id="auto_112" type="klaster_car" depart="431" from="269702544" to="-698026762" color="255,165,0"/>
    <trip id="auto_85" type="klaster_car" depart="441" from="-319058589#1" to="319058644" color="0,0,128"/>
    <trip id="auto_287" type="klaster_car" depart="447" from="-165170818#3" to="-1119245060#0" color="255,20,147"/>
    <trip id="auto_109" type="klaster_car" depart="450" from="48955997" to="-36289599#0" color="165,42,42"/>
    <trip id="auto_31" type="klaster_car" depart="452" from="-698026762" to="319058646#1" color="255,127,80"/>
    <trip id="auto_440" type="klaster_car" depart="454" from="-319779154" to="-165172642#0" color="255,0,0"/>
    <trip id="auto_159" type="klaster_car" depart="456" from="-36288941#1" to="-650145324#1" color="0,0,128"/>
    <trip id="auto_157" type="klaster_car" depart="460" from="-36293752#1" to="36936262#1" color="255,165,0"/>
    <trip id="auto_280" type="klaster_car" depart="469" from="-153730937" to="36936590#1" color="165,42,42"/>
    <trip id="auto_232" type="klaster_car" depart="473" from="48955997" to="-610220874#1" color="0,0,128"/>
    <trip id="auto_448" type="klaster_car" depart="476" from="165170685#1" to="-328471845#0" color="255,20,147"/>
    <trip id="auto_485" type="klaster_car" depart="489" from="319058598" to="-37054066" color="0,0,128"/>
    <trip id="auto_226" type="klaster_car" depart="489" from="-36950439#1" to="-610220874#1" color="255,165,0"/>
    <trip id="auto_48" type="klaster_car" depart="490" from="-394456356#1" to="37088258#0" color="0,0,128"/>
    <trip id="auto_266" type="klaster_car" depart="490" from="394456356#0" to="-394443151#2" color="255,165,0"/>
    <trip id="auto_428" type="klaster_car" depart="490" from="-1119245693" to="-165170994#4" color="165,42,42"/>
    <trip id="auto_238" type="klaster_car" depart="491" from="319058608#0" to="-698024153" color="0,0,128"/>
    <trip id="auto_23" type="klaster_car" depart="492" from="36936396#2" to="319058644" color="0,0,128"/>
    <trip id="auto_102" type="klaster_car" depart="492" from="39820659#3" to="36935232" color="255,165,0"/>
    <trip id="auto_307" type="klaster_car" depart="501" from="-36293459#0" to="-243836890#0" color="0,0,255"/>
    <trip id="auto_188" type="klaster_car" depart="502" from="1238956370" to="-36950506#2" color="0,255,0"/>
    <trip id="auto_515" type="klaster_car" depart="503" from="-165170818#3" to="37056055#1" color="255,165,0"/>
    <trip id="auto_251" type="klaster_car" depart="503" from="36934835#2" to="302162780#1" color="0,0,255"/>
    <trip id="auto_489" type="klaster_car" depart="508" from="-156460691" to="-35802097#1" color="0,0,128"/>
    <trip id="auto_418" type="klaster_car" depart="509" from="-165170818#3" to="-165171782" color="0,0,128"/>
    <trip id="auto_500" type="klaster_car" depart="515" from="-1238426234#0" to="-37054066" color="255,165,0"/>
    <trip id="auto_56" type="klaster_car" depart="518" from="1239117013#2" to="156467000#3" color="255,165,0"/>
    <trip id="auto_230" type="klaster_car" depart="518" from="-36288941#2" to="-319779150#1" color="165,42,42"/>
    <trip id="auto_62" type="klaster_car" depart="520" from="-394446873#0" to="36936373#1" color="0,255,0"/>
    <trip id="auto_401" type="klaster_car" depart="521" from="-165171783#1" to="-165172642#0" color="165,42,42"/>
    <trip id="auto_344" type="klaster_car" depart="522" from="-153730022#1" to="-698024153" color="255,215,0"/>
    <trip id="auto_308" type="klaster_car" depart="529" from="-156460683#7" to="-36293459#8" color="165,42,42"/>
    <trip id="auto_25" type="klaster_car" depart="531" from="269702544" to="-37052381#1" color="255,165,0"/>
    <trip id="auto_177" type="klaster_car" depart="544" from="-36294081#1" to="-650145330#0" color="165,42,42"/>
    <trip id="auto_88" type="klaster_car" depart="545" from="36950506#0" to="39820659#0" color="0,0,128"/>
    <trip id="auto_185" type="klaster_car" depart="551" from="37050033#0" to="157553231" color="165,42,42"/>
    <trip id="auto_87" type="klaster_car" depart="551" from="-37055902#2" to="-36950506#2" color="165,42,42"/>
    <trip id="auto_60" type="klaster_car" depart="562" from="-36293752#5" to="-1239117016#2" color="165,42,42"/>
    <trip id="auto_497" type="klaster_car" depart="563" from="-187827283#2" to="-35802097#1" color="165,42,42"/>
    <trip id="auto_1" type="klaster_car" depart="566" from="-165171783#1" to="37052930" color="255,165,0"/>
    <trip id="auto_252" type="klaster_car" depart="571" from="39820659#3" to="-35801597#3" color="255,165,0"/>
    <trip id="auto_286" type="klaster_car" depart="571" from="165170685#0" to="36934860#2" color="255,0,255"/>
    <trip id="auto_2" type="klaster_car" depart="574" from="-1339478328#0" to="-156460683#5" color="255,165,0"/>
    <trip id="auto_190" type="klaster_car" depart="575" from="-153730939#1" to="-165172642#0" color="165,42,42"/>
    <trip id="auto_343" type="klaster_car" depart="577" from="36935040#2" to="165170685#1" color="0,128,128"/>
    <trip id="auto_313" type="klaster_car" depart="577" from="37051441#2" to="-243836884#1" color="165,42,42"/>
    <trip id="auto_84" type="klaster_car" depart="588" from="37088256" to="-36289599#0" color="0,0,128"/>
    <trip id="auto_347" type="klaster_car" depart="588" from="-153730015#3" to="156467000#3" color="255,165,0"/>
    <trip id="auto_0" type="klaster_car" depart="590" from="156460680#1" to="-243836884#5" color="165,42,42"/>
    <trip id="auto_398" type="klaster_car" depart="592" from="-243836884#5" to="-165172165#1" color="165,42,42"/>
    <trip id="auto_15" type="klaster_car" depart="601" from="-319058611" to="-394443151#2" color="128,0,128"/>
    <trip id="auto_498" type="klaster_car" depart="613" from="319058646#1" to="187827279" color="165,42,42"/>
    <trip id="auto_20" type="klaster_car" depart="614" from="-319058611" to="1239117012#2" color="165,42,42"/>
    <trip id="auto_516" type="klaster_car" depart="624" from="-35801699#1" to="-35801597#3" color="0,128,128"/>
    <trip id="auto_63" type="klaster_car" depart="640" from="-36933151#0" to="-394443146" color="0,128,128"/>
    <trip id="auto_66" type="klaster_car" depart="642" from="-36950439#1" to="-36950506#2" color="0,128,128"/>
    <trip id="auto_333" type="klaster_car" depart="646" from="-36933126#1" to="36936327" color="0,128,128"/>
    <trip id="auto_454" type="klaster_car" depart="646" from="319058646#0" to="-650145330#0" color="255,0,0"/>
    <trip id="auto_3" type="klaster_car" depart="653" from="-1119245057#1" to="-153730010#2" color="165,42,42"/>
    <trip id="auto_151" type="klaster_car" depart="654" from="37051872#0" to="157553231" color="165,42,42"/>
    <trip id="auto_135" type="klaster_car" depart="656" from="-37055563#1" to="-36293459#8" color="165,42,42"/>
    <trip id="auto_459" type="klaster_car" depart="659" from="-165172642#2" to="36936590#6" color="255,0,0"/>
    <trip id="auto_420" type="klaster_car" depart="664" from="-165170818#3" to="-165171782" color="0,128,128"/>
    <trip id="auto_467" type="klaster_car" depart="671" from="-394443151#2" to="-165170818#8" color="0,128,128"/>
    <trip id="auto_520" type="klaster_car" depart="672" from="-165170818#1" to="-156480737#2" color="255,0,255"/>
    <trip id="auto_163" type="klaster_car" depart="677" from="-36294383#9" to="153730936#3" color="165,42,42"/>
    <trip id="auto_358" type="klaster_car" depart="677" from="-153732963#2" to="-153730022#1" color="0,128,128"/>
    <trip id="auto_453" type="klaster_car" depart="681" from="-1239117045" to="-36933151#0" color="255,0,255"/>
    <trip id="auto_61" type="klaster_car" depart="682" from="-1239117016#2" to="-36293752#5" color="0,128,128"/>
    <trip id="auto_118" type="klaster_car" depart="682" from="-394443151#0" to="327343097#1" color="0,128,128"/>
    <trip id="auto_323" type="klaster_car" depart="688" from="697624157#1" to="-394446875" color="255,127,80"/>
    <trip id="auto_380" type="klaster_car" depart="690" from="394443152#0" to="-698026762" color="255,0,255"/>
    <trip id="auto_149" type="klaster_car" depart="694" from="1119245067" to="-36950439#0" color="0,128,128"/>
    <trip id="auto_44" type="klaster_car" depart="694" from="-35801597#3" to="165170685#1" color="0,128,128"/>
    <trip id="auto_205" type="klaster_car" depart="697" from="269702544" to="-36289599#0" color="255,165,0"/>
    <trip id="auto_174" type="klaster_car" depart="698" from="36936727#4" to="-37052277#2" color="255,20,147"/>
    <trip id="auto_302" type="klaster_car" depart="700" from="1339510612#2" to="36936423#5" color="255,165,0"/>
    <trip id="auto_43" type="klaster_car" depart="701" from="39820659#3" to="-698026762" color="0,128,128"/>
    <trip id="auto_328" type="klaster_car" depart="706" from="-153730013#2" to="36935040#3" color="255,165,0"/>
    <trip id="auto_293" type="klaster_car" depart="710" from="-394456385#1" to="-37052277#2" color="0,128,128"/>
    <trip id="auto_426" type="klaster_car" depart="719" from="-153730935" to="610135147#1" color="255,127,80"/>
    <trip id="auto_121" type="klaster_car" depart="721" from="39820659#0" to="269702561#1" color="255,165,0"/>
    <trip id="auto_284" type="klaster_car" depart="732" from="-698024153" to="394456380" color="255,0,255"/>
    <trip id="auto_422" type="klaster_car" depart="736" from="-327343082" to="-159922662#1" color="0,255,0"/>
    <trip id="auto_27" type="klaster_car" depart="736" from="-319058611" to="-698026762" color="0,128,128"/>
    <trip id="auto_57" type="klaster_car" depart="736" from="-394456356#1" to="-157555050#0" color="0,128,128"/>
    <trip id="auto_338" type="klaster_car" depart="740" from="165170685#1" to="319779133#0" color="255,215,0"/>
    <trip id="auto_465" type="klaster_car" depart="748" from="-698024153" to="-394443152#1" color="255,215,0"/>
    <trip id="auto_513" type="klaster_car" depart="755" from="-327343096" to="187827276" color="255,215,0"/>
    <trip id="auto_150" type="klaster_car" depart="756" from="-156460683#7" to="37052930" color="0,0,255"/>
    <trip id="auto_67" type="klaster_car" depart="757" from="-319779150#1" to="319058608#0" color="255,0,255"/>
    <trip id="auto_101" type="klaster_car" depart="761" from="-153730939#1" to="-1239117016#2" color="255,215,0"/>
    <trip id="auto_111" type="klaster_car" depart="763" from="-36950506#2" to="-36950439#0" color="255,215,0"/>
    <trip id="auto_419" type="klaster_car" depart="764" from="-394443147#0" to="-1238426236" color="255,215,0"/>
    <trip id="auto_223" type="klaster_car" depart="766" from="-159922662#1" to="-153732963#2" color="165,42,42"/>
    <trip id="auto_359" type="klaster_car" depart="767" from="-153730015#3" to="-698024153" color="255,215,0"/>
    <trip id="auto_65" type="klaster_car" depart="786" from="165170685#0" to="-153730010#2" color="255,0,255"/>
    <trip id="auto_384" type="klaster_car" depart="787" from="-698024153" to="-243836884#5" color="255,0,0"/>
    <trip id="auto_228" type="klaster_car" depart="789" from="-650145324#0" to="-36289599#1" color="255,0,255"/>
    <trip id="auto_216" type="klaster_car" depart="789" from="-157553230" to="-394443151#2" color="128,0,128"/>
    <trip id="auto_455" type="klaster_car" depart="794" from="-394443147#1" to="-698024153" color="255,215,0"/>
    <trip id="auto_442" type="klaster_car" depart="795" from="36950518#0" to="-165170994#4" color="0,255,255"/>
    <trip id="auto_482" type="klaster_car" depart="795" from="394456402#0" to="156467000#0" color="255,215,0"/>
    <trip id="auto_404" type="klaster_car" depart="802" from="-165170681#1" to="-165172642#0" color="255,215,0"/>
    <trip id="auto_96" type="klaster_car" depart="804" from="39820659#3" to="37050051" color="255,215,0"/>
    <trip id="auto_189" type="klaster_car" depart="808" from="-1299820133" to="36936396#0" color="165,42,42"/>
    <trip id="auto_388" type="klaster_car" depart="810" from="319058646#0" to="-243836884#5" color="255,0,0"/>
    <trip id="auto_235" type="klaster_car" depart="810" from="-37640679#2" to="-153730022#0" color="0,255,0"/>
    <trip id="auto_306" type="klaster_car" depart="816" from="698018294#1" to="37052930" color="255,215,0"/>
    <trip id="auto_115" type="klaster_car" depart="817" from="37050033#1" to="394446867#0" color="255,215,0"/>
    <trip id="auto_377" type="klaster_car" depart="818" from="-165170818#3" to="-698024153" color="255,215,0"/>
    <trip id="auto_294" type="klaster_car" depart="819" from="269702544" to="1239117012#1" color="165,42,42"/>
    <trip id="auto_503" type="klaster_car" depart="821" from="327343097#1" to="-36293459#8" color="0,255,0"/>
    <trip id="auto_449" type="klaster_car" depart="821" from="269702561#0" to="-201772616#1" color="165,42,42"/>
    <trip id="auto_414" type="klaster_car" depart="827" from="319058643#0" to="165170685#0" color="0,128,128"/>
    <trip id="auto_291" type="klaster_car" depart="832" from="-153730010#2" to="-394446869" color="128,0,128"/>
    <trip id="auto_342" type="klaster_car" depart="846" from="-215094374" to="-165172165#1" color="0,255,0"/>
    <trip id="auto_52" type="klaster_car" depart="846" from="-36950439#0" to="-153730020#0" color="165,42,42"/>
    <trip id="auto_128" type="klaster_car" depart="855" from="-157553230" to="-153730010#2" color="0,0,128"/>