<routes>
    <vType id="klaster_car" vClass="passenger"/>

    <trip id="auto_53" type="klaster_car" depart="13" from="-297823021" to="-372606529#4" color="255,127,80"/>
    <trip id="auto_30" type="klaster_car" depart="15" from="-282689975#2" to="-101594836#0" color="255,127,80"/>
    <trip id="auto_118" type="klaster_car" depart="16" from="-619184994" to="-101746498#2" color="255,20,147"/>
    <trip id="auto_175" type="klaster_car" depart="17" from="-71223800#4" to="-336863927#1" color="255,127,80"/>
    <trip id="auto_210" type="klaster_car" depart="44" from="-101752970#1" to="-1323419243" color="0,255,0"/>
    <trip id="auto_143" type="klaster_car" depart="63" from="120829754" to="526438862#0" color="0,255,255"/>
    <trip id="auto_0" type="klaster_car" depart="70" from="-42762428#0" to="-100468681#2" color="0,0,255"/>
    <trip id="auto_101" type="klaster_car" depart="76" from="-101765339#0" to="71324343#3" color="50,205,50"/>
    <trip id="auto_89" type="klaster_car" depart="117" from="-101746516#2" to="-372606529#4" color="173,216,230"/>
    <trip id="auto_116" type="klaster_car" depart="122" from="-282689975#2" to="-101752970#2" color="255,165,0"/>
    <trip id="auto_69" type="klaster_car" depart="124" from="101611060" to="-1200809291" color="0,255,255"/>
    <trip id="auto_9" type="klaster_car" depart="131" from="-120511302" to="-372606529#4" color="173,216,230"/>
    <trip id="auto_107" type="klaster_car" depart="137" from="-101749451" to="-619184994" color="173,216,230"/>
    <trip id="auto_117" type="klaster_car" depart="143" from="-282689986" to="-282690560#0" color="255,127,80"/>
    <trip id="auto_129" type="klaster_car" depart="145" from="-100488715#6" to="-372606529#4" color="173,216,230"/>
    <trip id="auto_5" type="klaster_car" depart="154" from="-101607967#0" to="-100468681#0" color="0,0,255"/>
    <trip id="auto_150" type="klaster_car" depart="154" from="526438862#1" to="-101752975#1" color="255,165,0"/>
    <trip id="auto_170" type="klaster_car" depart="162" from="-336860316#0" to="-837309289#1" color="0,255,0"/>
    <trip id="auto_156" type="klaster_car" depart="162" from="101607964#0" to="-101600741#2" color="0,0,255"/>
    <trip id="auto_77" type="klaster_car" depart="175" from="120509991" to="-100468681#0" color="0,0,255"/>
    <trip id="auto_208" type="klaster_car" depart="178" from="416405090" to="-1323419243" color="255,165,0"/>
    <trip id="auto_105" type="klaster_car" depart="187" from="101418583" to="-47374664" color="255,165,0"/>
    <trip id="auto_55" type="klaster_car" depart="188" from="-71324343#4" to="-619184994" color="255,127,80"/>
    <trip id="auto_83" type="klaster_car" depart="191" from="-42762428#3" to="-416409191#0" color="165,42,42"/>
    <trip id="auto_56" type="klaster_car" depart="208" from="-101607098#1" to="100475365#1" color="154,205,50"/>
    <trip id="auto_177" type="klaster_car" depart="218" from="-101600741#2" to="-101752975#2" color="218,112,214"/>
    <trip id="auto_194" type="klaster_car" depart="219" from="336863927#0" to="-101752975#1" color="255,215,0"/>
    <trip id="auto_72" type="klaster_car" depart="231" from="-101418584#1" to="-100468681#0" color="0,0,255"/>
    <trip id="auto_46" type="klaster_car" depart="234" from="-101787489" to="-1323419243" color="0,255,0"/>
    <trip id="auto_157" type="klaster_car" depart="246" from="-101604513#1" to="101606547#1" color="255,0,255"/>
    <trip id="auto_18" type="klaster_car" depart="257" from="-297823021" to="-101754276#1" color="255,215,0"/>
    <trip id="auto_186" type="klaster_car" depart="262" from="-101765339#0" to="100475365#1" color="50,205,50"/>
    <trip id="auto_8" type="klaster_car" depart="271" from="-101609498#5" to="282689983#1" color="154,205,50"/>
    <trip id="auto_103" type="klaster_car" depart="278" from="-101787498" to="-71223800#1" color="50,205,50"/>
    <trip id="auto_109" type="klaster_car" depart="282" from="47374680#2" to="-372606529#4" color="173,216,230"/>
    <trip id="auto_220" type="klaster_car" depart="292" from="-101765343" to="-101746498#2" color="50,205,50"/>
    <trip id="auto_102" type="klaster_car" depart="316" from="-101415864#1" to="-416412034" color="255,127,80"/>
    <trip id="auto_164" type="klaster_car" depart="326" from="-101606549" to="-101605951#5" color="255,0,255"/>
    <trip id="auto_146" type="klaster_car" depart="331" from="1200809292" to="101606547#1" color="255,0,255"/>
    <trip id="auto_135" type="klaster_car" depart="347" from="101607969#1" to="-100468681#0" color="0,0,255"/>
    <trip id="auto_104" type="klaster_car" depart="356" from="101784499#1" to="1047412912#0" color="50,205,50"/>
    <trip id="auto_35" type="klaster_car" depart="357" from="297823019#3" to="-71324343#0" color="255,127,80"/>
    <trip id="auto_10" type="klaster_car" depart="360" from="101416508#0" to="101418583" color="255,127,80"/>
    <trip id="auto_54" type="klaster_car" depart="385" from="526439431#0" to="-100468681#0" color="0,0,255"/>
    <trip id="auto_137" type="klaster_car" depart="394" from="-101604497" to="-1323419243" color="0,255,255"/>
    <trip id="auto_99" type="klaster_car" depart="395" from="-659278038#3" to="-1200809291" color="0,255,255"/>
    <trip id="auto_169" type="klaster_car" depart="399" from="76867740" to="-101746498#2" color="210,105,30"/>
    <trip id="auto_204" type="klaster_car" depart="400" from="-101746498#2" to="-101604518" color="173,216,230"/>
    <trip id="auto_76" type="klaster_car" depart="400" from="-71223800#7" to="416428068" color="255,127,80"/>
    <trip id="auto_206" type="klaster_car" depart="412" from="101784499#1" to="-1323419243" color="0,255,0"/>
    <trip id="auto_86" type="klaster_car" depart="414" from="-101746498#2" to="120509990" color="128,0,128"/>
    <trip id="auto_168" type="klaster_car" depart="426" from="-101746498#2" to="-101746516#0" color="128,0,128"/>
    <trip id="auto_218" type="klaster_car" depart="426" from="-101765343" to="-101418589" color="50,205,50"/>
    <trip id="auto_209" type="klaster_car" depart="428" from="-101767911" to="416428068" color="50,205,50"/>
    <trip id="auto_221" type="klaster_car" depart="443" from="-173532317#1" to="-1323419243" color="0,255,0"/>
    <trip id="auto_58" type="klaster_car" depart="445" from="-42762428#0" to="-101599076#0" color="154,205,50"/>
    <trip id="auto_215" type="klaster_car" depart="462" from="-101784793" to="-1323419243" color="0,255,0"/>
    <trip id="auto_98" type="klaster_car" depart="465" from="-101746498#0" to="416428068" color="173,216,230"/>
    <trip id="auto_41" type="klaster_car" depart="466" from="-297823021" to="416373452" color="255,127,80"/>
    <trip id="auto_19" type="klaster_car" depart="476" from="-282689985#1" to="-101608959" color="173,216,230"/>
    <trip id="auto_81" type="klaster_car" depart="486" from="-101601551" to="-101746508#0" color="255,20,147"/>
    <trip id="auto_110" type="klaster_car" depart="487" from="619185406" to="-1200809291" color="0,255,255"/>
    <trip id="auto_95" type="klaster_car" depart="494" from="-101415864#1" to="-1323419247" color="255,127,80"/>
    <trip id="auto_181" type="klaster_car" depart="503" from="76867740" to="416428068" color="50,205,50"/>
    <trip id="auto_163" type="klaster_car" depart="510" from="101607969#0" to="-416409192#7" color="165,42,42"/>
    <trip id="auto_213" type="klaster_car" depart="557" from="-416409191#1" to="416428068" color="255,0,0"/>
    <trip id="auto_1" type="klaster_car" depart="569" from="-1323419247" to="464265154" color="154,205,50"/>
    <trip id="auto_59" type="klaster_car" depart="574" from="526438862#0" to="-100468681#0" color="0,0,255"/>
    <trip id="auto_100" type="klaster_car" depart="583" from="463830226#1" to="464265154" color="255,127,80"/>
    <trip id="auto_134" type="klaster_car" depart="586" from="-100488715#3" to="1164659926" color="154,205,50"/>
    <trip id="auto_32" type="klaster_car" depart="587" from="-101604513#1" to="-100468675#0" color="0,0,255"/>
    <trip id="auto_68" type="klaster_car" depart="589" from="71324347#5" to="-1047412913" color="173,216,230"/>
    <trip id="auto_88" type="klaster_car" depart="593" from="71324347#1" to="100475365#1" color="154,205,50"/>
    <trip id="auto_16" type="klaster_car" depart="595" from="101594836#1" to="-101418584#1" color="255,127,80"/>
    <trip id="auto_70" type="klaster_car" depart="598" from="-101415865#0" to="-100525438#2" color="173,216,230"/>
    <trip id="auto_80" type="klaster_car" depart="626" from="-71324343#5" to="416428068" color="255,127,80"/>
    <trip id="auto_153" type="klaster_car" depart="631" from="-101601559" to="-100468681#0" color="0,0,255"/>
    <trip id="auto_6" type="klaster_car" depart="637" from="-101594809#0" to="-101787493" color="255,215,0"/>
    <trip id="auto_133" type="klaster_car" depart="640" from="100475365#1" to="-101604513#1" color="154,205,50"/>
    <trip id="auto_131" type="klaster_car" depart="667" from="-100488715#3" to="-101609498#0" color="154,205,50"/>
    <trip id="auto_120" type="klaster_car" depart="688" from="101611600" to="100475365#1" color="154,205,50"/>
    <trip id="auto_50" type="klaster_car" depart="731" from="100475365#1" to="-101601832#0" color="154,205,50"/>
    <trip id="auto_130" type="klaster_car" depart="753" from="-659278038#0" to="100475365#1" color="154,205,50"/>
    <trip id="auto_148" type="klaster_car" depart="758" from="-100488715#4" to="-101605951#5" color="255,0,255"/>
    <trip id="auto_173" type="klaster_car" depart="763" from="-416375814" to="-352797377" color="255,255,0"/>
    <trip id="auto_171" type="klaster_car" depart="763" from="-101765343" to="416428068" color="50,205,50"/>
    <trip id="auto_159" type="klaster_car" depart="769" from="101594822" to="-120511144#0" color="255,215,0"/>
    <trip id="auto_147" type="klaster_car" depart="772" from="659278036#2" to="-100468681#0" color="0,0,255"/>
    <trip id="auto_141" type="klaster_car" depart="776" from="526439431#0" to="101754278#1" color="218,112,214"/>
    <trip id="auto_125" type="klaster_car" depart="787" from="100475365#1" to="71324347#5" color="0,255,255"/>
    <trip id="auto_114" type="klaster_car" depart="791" from="-1200809291" to="120509991" color="154,205,50"/>
    <trip id="auto_119" type="klaster_car" depart="798" from="-1323419247" to="282479125#1" color="154,205,50"/>
    <trip id="auto_44" type="klaster_car" depart="800" from="-297823017" to="-101746498#2" color="255,20,147"/>
    <trip id="auto_43" type="klaster_car" depart="807" from="-297823024" to="100475365#1" color="154,205,50"/>
    <trip id="auto_20" type="klaster_car" depart="810" from="526438862#2" to="-1323419243" color="255,165,0"/>
    <trip id="auto_188" type="klaster_car" depart="814" from="-282689975#3" to="-1200809291" color="255,127,80"/>
    <trip id="auto_123" type="klaster_car" depart="830" from="659281081#1" to="-352797377" color="255,255,0"/>
    <trip id="auto_84" type="klaster_car" depart="836" from="-101601551" to="101606547#1" color="255,0,255"/>
    <trip id="auto_3" type="klaster_car" depart="850" from="-100525445" to="101606547#1" color="255,0,255"/>
    <trip id="auto_15" type="klaster_car" depart="852" from="-101604496#1" to="-100468681#0" color="0,0,255"/>
    <trip id="auto_27" type="klaster_car" depart="853" from="868087112" to="416373452" color="0,255,255"/>
    <trip id="auto_197" type="klaster_car" depart="877" from="120509990" to="1323419244" color="255,165,0"/>
    <trip id="auto_205" type="klaster_car" depart="908" from="-101787489" to="526438862#0" color="0,255,0"/>
    <trip id="auto_96" type="klaster_car" depart="922" from="71223791#1" to="100475365#1" color="255,127,80"/>
    <trip id="auto_212" type="klaster_car" depart="935" from="101765339#2" to="-71223800#4" color="50,205,50"/>
    <trip id="auto_161" type="klaster_car" depart="943" from="100475365#1" to="-101609494#0" color="154,205,50"/>
    <trip id="auto_149" type="klaster_car" depart="954" from="71223800#6" to="-416409192#7" color="165,42,42"/>
    <trip id="auto_26" type="klaster_car" depart="958" from="-100488715#4" to="-101611601" color="173,216,230"/>
    <trip id="auto_184" type="klaster_car" depart="980" from="-101749465" to="-1323419247" color="255,127,80"/>
    <trip id="auto_48" type="klaster_car" depart="981" from="659281081#1" to="100475365#1" color="154,205,50"/>
    <trip id="auto_140" type="klaster_car" depart="983" from="-336860316#0" to="101608824" color="50,205,50"/>
    <trip id="auto_165" type="klaster_car" depart="986" from="-101605951#5" to="-101606549" color="255,0,255"/>
    <trip id="auto_187" type="klaster_car" depart="1012" from="-282689981#1" to="-619184994" color="255,127,80"/>
    <trip id="auto_145" type="klaster_car" depart="1013" from="-1323419243" to="-101746498#2" color="210,105,30"/>
    <trip id="auto_90" type="klaster_car" depart="1026" from="526438862#2" to="-100468681#1" color="0,0,255"/>
    <trip id="auto_21" type="klaster_car" depart="1026" from="71324347#0" to="-101746498#2" color="210,105,30"/>
    <trip id="auto_49" type="klaster_car" depart="1027" from="-101601559" to="-101746516#0" color="255,20,147"/>
    <trip id="auto_94" type="klaster_car" depart="1027" from="75421017" to="-1323419243" color="255,165,0"/>
    <trip id="auto_196" type="klaster_car" depart="1054" from="1323419244" to="-1323419243" color="255,165,0"/>
    <trip id="auto_151" type="klaster_car" depart="1054" from="-101752975#1" to="101606547#1" color="50,205,50"/>
    <trip id="auto_179" type="klaster_car" depart="1060" from="-336860317#0" to="-101606546" color="0,255,0"/>
    <trip id="auto_106" type="klaster_car" depart="1087" from="-47374664" to="101418583" color="250,128,114"/>
    <trip id="auto_82" type="klaster_car" depart="1091" from="-416409191#0" to="100475365#1" color="255,0,0"/>
    <trip id="auto_160" type="klaster_car" depart="1101" from="-101608960" to="-100488715#7" color="154,205,50"/>
    <trip id="auto_108" type="klaster_car" depart="1129" from="-297823017" to="101767915#1" color="255,215,0"/>
    <trip id="auto_57" type="klaster_car" depart="1156" from="101611600" to="-1200809291" color="0,255,255"/>
    <trip id="auto_4" type="klaster_car" depart="1175" from="-282689981#0" to="-352797377" color="255,255,0"/>
    <trip id="auto_62" type="klaster_car" depart="1184" from="-100468681#0" to="-101749458#0" color="0,128,128"/>
    <trip id="auto_33" type="klaster_car" depart="1187" from="-100468675#0" to="-101604513#1" color="154,205,50"/>
    <trip id="auto_202" type="klaster_car" depart="1192" from="-336860316#0" to="416428068" color="50,205,50"/>
    <trip id="auto_12" type="klaster_car" depart="1197" from="336863934" to="100475365#1" color="255,127,80"/>
    <trip id="auto_45" type="klaster_car" depart="1219" from="-101594843" to="-619184994" color="255,127,80"/>
    <trip id="auto_31" type="klaster_car" depart="1230" from="120511932#0" to="100475365#1" color="154,205,50"/>
    <trip id="auto_207" type="klaster_car" depart="1230" from="-101411571#0" to="-101746498#2" color="210,105,30"/>
    <trip id="auto_23" type="klaster_car" depart="1235" from="-47374665#1" to="-100468681#0" color="0,0,255"/>
    <trip id="auto_52" type="klaster_car" depart="1236" from="659283000#1" to="100525438#0" color="255,127,80"/>
    <trip id="auto_124" type="klaster_car" depart="1240" from="-101608960" to="-101752975#2" color="218,112,214"/>
    <trip id="auto_71" type="klaster_car" depart="1258" from="-100525438#2" to="-101415865#0" color="0,255,255"/>
    <trip id="auto_51" type="klaster_car" depart="1262" from="120511930" to="-372606529#4" color="173,216,230"/>
    <trip id="auto_152" type="klaster_car" depart="1276" from="-100468681#0" to="101417074" color="0,0,128"/>
    <trip id="auto_24" type="klaster_car" depart="1283" from="-297823024" to="101767915#1" color="255,215,0"/>
    <trip id="auto_132" type="klaster_car" depart="1294" from="100525438#0" to="-100468681#0" color="0,0,255"/>
    <trip id="auto_189" type="klaster_car" depart="1295" from="-336860317#1" to="-1047412913" color="50,205,50"/>
    <trip id="auto_180" type="klaster_car" depart="1300" from="-101606546" to="-336860317#0" color="255,165,0"/>
    <trip id="auto_216" type="klaster_car" depart="1309" from="101784499#1" to="-101746514" color="0,255,0"/>
    <trip id="auto_39" type="klaster_car" depart="1309" from="-100468681#0" to="-336863927#1" color="0,0,128"/>
    <trip id="auto_13" type="klaster_car" depart="1317" from="100475365#1" to="336863934" color="0,255,255"/>
    <trip id="auto_40" type="klaster_car" depart="1318" from="-101600741#2" to="-659283000#3" color="0,0,128"/>
    <trip id="auto_167" type="klaster_car" depart="1329" from="-416375813" to="-101767922" color="255,215,0"/>
    <trip id="auto_178" type="klaster_car" depart="1331" from="-619184994" to="-101752975#1" color="255,215,0"/>
    <trip id="auto_142" type="klaster_car" depart="1338" from="-100468681#0" to="-23887076#2" color="0,0,128"/>
    <trip id="auto_158" type="klaster_car" depart="1349" from="-101605951#3" to="526438862#2" color="0,255,255"/>
    <trip id="auto_201" type="klaster_car" depart="1353" from="-101746516#0" to="-101605951#5" color="250,128,114"/>
    <trip id="auto_64" type="klaster_car" depart="1356" from="71324343#3" to="526438862#2" color="255,127,80"/>
    <trip id="auto_162" type="klaster_car" depart="1358" from="-1323419242#1" to="-100468681#1" color="0,0,255"/>
    <trip id="auto_174" type="klaster_car" depart="1363" from="-352797377" to="-416375814" color="255,255,0"/>
    <trip id="auto_190" type="klaster_car" depart="1377" from="526438862#2" to="-1323419243" color="255,165,0"/>
    <trip id="auto_192" type="klaster_car" depart="1383" from="-47374664" to="101606547#1" color="250,128,114"/>
    <trip id="auto_67" type="klaster_car" depart="1388" from="-42762428#3" to="-47374664" color="0,255,255"/>
    <trip id="auto_87" type="klaster_car" depart="1390" from="-101601553#1" to="-619184994" color="255,127,80"/>
    <trip id="auto_73" type="klaster_car" depart="1391" from="526438862#0" to="-100468681#0" color="0,0,255"/>
    <trip id="auto_219" type="klaster_car" depart="1401" from="-101749449#0" to="-1323419243" color="255,165,0"/>
    <trip id="auto_195" type="klaster_car" depart="1401" from="-101604496#1" to="-101746498#2" color="255,20,147"/>
    <trip id="auto_29" type="klaster_car" depart="1411" from="416409192#0" to="-416409191#0" color="255,0,0"/>
    <trip id="auto_60" type="klaster_car" depart="1415" from="100475365#1" to="71324347#3" color="0,255,255"/>
    <trip id="auto_92" type="klaster_car" depart="1424" from="71324347#3" to="-101418584#0" color="255,165,0"/>
    <trip id="auto_97" type="klaster_car" depart="1433" from="-679068326#3" to="-1200809291" color="255,127,80"/>
    <trip id="auto_85" type="klaster_car" depart="1436" from="101606547#1" to="-101601551" color="154,205,50"/>
    <trip id="auto_155" type="klaster_car" depart="1438" from="336863927#3" to="-619184994" color="255,127,80"/>
    <trip id="auto_203" type="klaster_car" depart="1440" from="101605951#0" to="-101746498#2" color="210,105,30"/>
    <trip id="auto_91" type="klaster_car" depart="1440" from="1164653913" to="526438862#1" color="0,255,255"/>
    <trip id="auto_128" type="klaster_car" depart="1444" from="-100488715#4" to="-619184994" color="255,127,80"/>
    <trip id="auto_61" type="klaster_car" depart="1461" from="-100468681#0" to="-1200809291" color="0,128,128"/>
    <trip id="auto_126" type="klaster_car" depart="1485" from="-100468681#2" to="659281081#1" color="0,255,255"/>
    <trip id="auto_111" type="klaster_car" depart="1503" from="-101746498#1" to="71223791#1" color="173,216,230"/>
    <trip id="auto_28" type="klaster_car" depart="1518" from="75421017" to="-100468675#0" color="0,0,255"/>
    <trip id="auto_183" type="klaster_car" depart="1522" from="101416508#1" to="71223791#1" color="255,127,80"/>
    <trip id="auto_14" type="klaster_car" depart="1526" from="-101611601" to="-100468681#0" color="0,0,255"/>
    <trip id="auto_22" type="klaster_car" depart="1539" from="297823019#4" to="-101787498" color="255,215,0"/>
    <trip id="auto_11" type="klaster_car" depart="1541" from="-47374680#7" to="526438862#2" color="173,216,230"/>
    <trip id="auto_2" type="klaster_car" depart="1548" from="71324347#2" to="416373452" color="255,165,0"/>
    <trip id="auto_121" type="klaster_car" depart="1551" from="71223791#1" to="100475365#1" color="255,127,80"/>
    <trip id="auto_63" type="klaster_car" depart="1553" from="101417074" to="463830226#1" color="255,127,80"/>
    <trip id="auto_78" type="klaster_car" depart="1553" from="-1006827381" to="416428068" color="255,127,80"/>
    <trip id="auto_172" type="klaster_car" depart="1556" from="-1200809291" to="-101752975#2" color="218,112,214"/>
    <trip id="auto_182" type="klaster_car" depart="1558" from="-100488715#3" to="-101411571#1" color="0,255,255"/>
    <trip id="auto_144" type="klaster_car" depart="1563" from="526438862#0" to="120829754" color="255,165,0"/>
    <trip id="auto_113" type="klaster_car" depart="1565" from="526439431#0" to="100475365#1" color="154,205,50"/>
    <trip id="auto_25" type="klaster_car" depart="1571" from="-101611601" to="-1323419243" color="255,215,0"/>
    <trip id="auto_166" type="klaster_car" depart="1583" from="416409192#5" to="101606547#1" color="255,0,0"/>
    <trip id="auto_214" type="klaster_car" depart="1603" from="-416409191#1" to="416428068" color="255,0,0"/>
    <trip id="auto_42" type="klaster_car" depart="1605" from="-101608828" to="-619184994" color="255,127,80"/>
    <trip id="auto_34" type="klaster_car" depart="1615" from="-416409190" to="-100468681#0" color="255,0,0"/>
    <trip id="auto_154" type="klaster_car" depart="1616" from="416409192#0" to="101606547#1" color="255,0,0"/>
    <trip id="auto_138" type="klaster_car" depart="1619" from="101606547#1" to="-101604518" color="154,205,50"/>
    <trip id="auto_191" type="klaster_car" depart="1620" from="71324347#5" to="416428068" color="255,165,0"/>
    <trip id="auto_36" type="klaster_car" depart="1627" from="-297823021" to="100475365#1" color="255,127,80"/>
    <trip id="auto_38" type="klaster_car" depart="1644" from="75421017" to="101606547#1" color="255,0,255"/>
    <trip id="auto_79" type="klaster_car" depart="1655" from="-416375813" to="-619184994" color="255,127,80"/>
    <trip id="auto_75" type="klaster_car" depart="1662" from="71223791#0" to="-372606529#4" color="173,216,230"/>
    <trip id="auto_7" type="klaster_car" depart="1679" from="-659278038#3" to="-101752975#1" color="218,112,214"/>
    <trip id="auto_115" type="klaster_car" depart="1691" from="120509991" to="-120511144#2" color="255,165,0"/>
    <trip id="auto_65" type="klaster_car" depart="1693" from="-101411571#0" to="-416409191#0" color="255,165,0"/>
    <trip id="auto_211" type="klaster_car" depart="1707" from="-101754276#1" to="-101746498#2" color="210,105,30"/>
    <trip id="auto_37" type="klaster_car" depart="1708" from="-297823017" to="-659283000#3" color="255,127,80"/>
    <trip id="auto_193" type="klaster_car" depart="1708" from="71324347#0" to="-47374664" color="255,165,0"/>
    <trip id="auto_139" type="klaster_car" depart="1711" from="-1323419243" to="-1323419242#1" color="255,165,0"/>
    <trip id="auto_200" type="klaster_car" depart="1717" from="120511301" to="416373452" color="255,165,0"/>
    <trip id="auto_122" type="klaster_car" depart="1721" from="-101746498#0" to="-101600741#2" color="173,216,230"/>
    <trip id="auto_47" type="klaster_car" depart="1734" from="-1323419243" to="-101787489" color="255,165,0"/>
    <trip id="auto_74" type="klaster_car" depart="1735" from="100475365#1" to="101607963" color="154,205,50"/>
    <trip id="auto_66" type="klaster_car" depart="1737" from="-101749462" to="100475365#1" color="255,127,80"/>
    <trip id="auto_17" type="klaster_car" depart="1745" from="659281081#1" to="-101746498#2" color="210,105,30"/>
    <trip id="auto_176" type="klaster_car" depart="1747" from="-479315694" to="-1323419243" color="0,255,0"/>
    <trip id="auto_199" type="klaster_car" depart="1747" from="-47374664" to="101606547#1" color="250,128,114"/>
    <trip id="auto_127" type="klaster_car" depart="1748" from="-101604496#1" to="-100468681#0" color="0,0,255"/>
    <trip id="auto_185" type="klaster_car" depart="1749" from="-297823017" to="-101746498#2" color="255,20,147"/>
    <trip id="auto_198" type="klaster_car" depart="1777" from="1323419244" to="120509990" color="255,165,0"/>
    <trip id="auto_217" type="klaster_car" depart="1780" from="659281081#0" to="-416409191#0" color="255,165,0"/>
    <trip id="auto_112" type="klaster_car" depart="1787" from="75421017" to="-372606529#4" color="173,216,230"/>
    <trip id="auto_93" type="klaster_car" depart="1790" from="-1323419243" to="868087112" color="50,205,50"/>
    <trip id="auto_136" type="klaster_car" depart="1798" from="-100468681#0" to="-101608828" color="0,0,128"/>
</routes>
