<routes>
    <vType id="klaster_car" vClass="passenger"/>

    <trip id="auto_0" type="klaster_car" depart="5" from="315358244" to="-25149001#4" color="50,205,50"/>
    <trip id="auto_1" type="klaster_car" depart="5" from="10425609#0" to="-128361102#1" color="255,127,80"/>
    <trip id="auto_2" type="klaster_car" depart="11" from="24608844" to="32978638#0" color="154,205,50"/>
    <trip id="auto_3" type="klaster_car" depart="11" from="315358244" to="386687235" color="50,205,50"/>
    <trip id="auto_4" type="klaster_car" depart="11" from="315358250#0" to="386687235" color="50,205,50"/>
    <trip id="auto_5" type="klaster_car" depart="12" from="-306240162#1" to="386687235" color="173,216,230"/>
    <trip id="auto_6" type="klaster_car" depart="13" from="-306240162#1" to="399835085#1" color="0,255,0"/>
    <trip id="auto_7" type="klaster_car" depart="15" from="-306240162#1" to="386687235" color="173,216,230"/>
    <trip id="auto_8" type="klaster_car" depart="17" from="-306240162#1" to="386687235" color="173,216,230"/>
    <trip id="auto_9" type="klaster_car" depart="25" from="201201950#1" to="32978638#0" color="250,128,114"/>
    <trip id="auto_10" type="klaster_car" depart="26" from="-306240162#1" to="386687235" color="173,216,230"/>
    <trip id="auto_11" type="klaster_car" depart="28" from="-306240162#1" to="386687235" color="173,216,230"/>
    <trip id="auto_12" type="klaster_car" depart="30" from="315358244" to="386687235" color="50,205,50"/>
    <trip id="auto_13" type="klaster_car" depart="31" from="201201953#4" to="-266565295#5" color="250,128,114"/>
    <trip id="auto_14" type="klaster_car" depart="33" from="10425609#0" to="-128361102#1" color="255,127,80"/>
    <trip id="auto_15" type="klaster_car" depart="37" from="-306240162#1" to="386687235" color="173,216,230"/>
    <trip id="auto_16" type="klaster_car" depart="39" from="272042143" to="24634414#1" color="255,255,0"/>
    <trip id="auto_17" type="klaster_car" depart="55" from="266565295#5" to="-24634415" color="255,255,0"/>
    <trip id="auto_18" type="klaster_car" depart="56" from="22716069#0" to="24634517#13" color="255,215,0"/>
    <trip id="auto_19" type="klaster_car" depart="57" from="266565295#5" to="201238729#3" color="154,205,50"/>
    <trip id="auto_20" type="klaster_car" depart="57" from="-306240162#1" to="386687235" color="173,216,230"/>
    <trip id="auto_21" type="klaster_car" depart="58" from="24634507" to="-266565295#5" color="250,128,114"/>
    <trip id="auto_22" type="klaster_car" depart="60" from="128361109#1" to="399835085#1" color="0,255,0"/>
    <trip id="auto_23" type="klaster_car" depart="61" from="272042143" to="201238729#3" color="154,205,50"/>
    <trip id="auto_24" type="klaster_car" depart="69" from="315358242#0" to="306240162#0" color="154,205,50"/>
    <trip id="auto_25" type="klaster_car" depart="72" from="128361109#1" to="386687235" color="173,216,230"/>
    <trip id="auto_26" type="klaster_car" depart="72" from="-447569998#1" to="-26677539" color="50,205,50"/>
    <trip id="auto_27" type="klaster_car" depart="73" from="128361109#1" to="386687235" color="173,216,230"/>
    <trip id="auto_28" type="klaster_car" depart="75" from="128361109#1" to="386687235" color="173,216,230"/>
    <trip id="auto_29" type="klaster_car" depart="77" from="128361109#1" to="32978638#0" color="250,128,114"/>
    <trip id="auto_30" type="klaster_car" depart="77" from="-306240162#1" to="386687235" color="173,216,230"/>
    <trip id="auto_31" type="klaster_car" depart="79" from="128361109#1" to="386687235" color="173,216,230"/>
    <trip id="auto_32" type="klaster_car" depart="80" from="315358244" to="447569997#1" color="50,205,50"/>
    <trip id="auto_33" type="klaster_car" depart="81" from="-306240162#1" to="386687235" color="173,216,230"/>
    <trip id="auto_34" type="klaster_car" depart="82" from="-447569998#1" to="399835085#1" color="154,205,50"/>
    <trip id="auto_35" type="klaster_car" depart="82" from="-54169231#2" to="386687235" color="50,205,50"/>
    <trip id="auto_36" type="klaster_car" depart="82" from="128361109#1" to="386687235" color="173,216,230"/>
    <trip id="auto_37" type="klaster_car" depart="82" from="315358244" to="32978638#0" color="255,165,0"/>
    <trip id="auto_38" type="klaster_car" depart="83" from="-306240162#1" to="386687235" color="173,216,230"/>
    <trip id="auto_39" type="klaster_car" depart="86" from="-306240162#1" to="386687235" color="173,216,230"/>
    <trip id="auto_40" type="klaster_car" depart="88" from="315358244" to="386687235" color="50,205,50"/>
    <trip id="auto_41" type="klaster_car" depart="89" from="128361109#1" to="386687235" color="173,216,230"/>
    <trip id="auto_42" type="klaster_car" depart="91" from="128361109#1" to="386687235" color="173,216,230"/>
    <trip id="auto_43" type="klaster_car" depart="92" from="128361109#1" to="32978638#0" color="250,128,114"/>
    <trip id="auto_44" type="klaster_car" depart="93" from="-306240162#1" to="386687235" color="173,216,230"/>
    <trip id="auto_45" type="klaster_car" depart="94" from="128361109#1" to="386687235" color="173,216,230"/>
    <trip id="auto_46" type="klaster_car" depart="96" from="128361109#1" to="40888354#0" color="173,216,230"/>
    <trip id="auto_47" type="klaster_car" depart="101" from="-10427692#1" to="-128361102#1" color="0,255,0"/>
    <trip id="auto_48" type="klaster_car" depart="101" from="-306240162#1" to="399835085#1" color="0,255,0"/>
    <trip id="auto_49" type="klaster_car" depart="105" from="-306240162#1" to="386687235" color="173,216,230"/>
    <trip id="auto_50" type="klaster_car" depart="106" from="-32978638#0" to="-266565295#5" color="154,205,50"/>
    <trip id="auto_51" type="klaster_car" depart="109" from="-306240162#1" to="386687235" color="173,216,230"/>
    <trip id="auto_52" type="klaster_car" depart="112" from="315358244" to="447569997#1" color="50,205,50"/>
    <trip id="auto_53" type="klaster_car" depart="119" from="-18809673#6" to="-266565295#5" color="250,128,114"/>
    <trip id="auto_54" type="klaster_car" depart="125" from="272042143" to="306240162#0" color="154,205,50"/>
    <trip id="auto_55" type="klaster_car" depart="127" from="201950247#3" to="32978638#0" color="255,165,0"/>
    <trip id="auto_56" type="klaster_car" depart="128" from="272042143" to="399835085#1" color="154,205,50"/>
    <trip id="auto_57" type="klaster_car" depart="129" from="10425609#0" to="-128361102#1" color="255,127,80"/>
    <trip id="auto_58" type="klaster_car" depart="131" from="272042143" to="306240162#0" color="154,205,50"/>
    <trip id="auto_59" type="klaster_car" depart="132" from="10425609#0" to="-128361102#1" color="255,127,80"/>
    <trip id="auto_60" type="klaster_car" depart="133" from="-306240162#1" to="386687235" color="173,216,230"/>
    <trip id="auto_61" type="klaster_car" depart="134" from="10425609#0" to="-128361102#1" color="255,127,80"/>
    <trip id="auto_62" type="klaster_car" depart="135" from="-32978638#0" to="-266565295#5" color="154,205,50"/>
    <trip id="auto_63" type="klaster_car" depart="136" from="272042143" to="306240162#0" color="154,205,50"/>
    <trip id="auto_64" type="klaster_car" depart="136" from="10425609#0" to="-128361102#1" color="255,127,80"/>
    <trip id="auto_65" type="klaster_car" depart="139" from="272042143" to="201238729#3" color="154,205,50"/>
    <trip id="auto_66" type="klaster_car" depart="140" from="-26677542#0" to="447569997#1" color="50,205,50"/>
    <trip id="auto_67" type="klaster_car" depart="141" from="26677213#0" to="386687235" color="173,216,230"/>
    <trip id="auto_68" type="klaster_car" depart="141" from="272042143" to="399835085#1" color="154,205,50"/>
    <trip id="auto_69" type="klaster_car" depart="142" from="266565295#5" to="201238729#3" color="154,205,50"/>
    <trip id="auto_70" type="klaster_car" depart="149" from="-447569998#1" to="315358242#0" color="50,205,50"/>
    <trip id="auto_71" type="klaster_car" depart="149" from="266565295#5" to="201238729#3" color="154,205,50"/>
    <trip id="auto_72" type="klaster_car" depart="150" from="266565295#5" to="-24634506#2" color="154,205,50"/>
    <trip id="auto_73" type="klaster_car" depart="152" from="-306240162#1" to="30482615#1" color="173,216,230"/>
    <trip id="auto_74" type="klaster_car" depart="154" from="-306240162#1" to="386687235" color="173,216,230"/>
    <trip id="auto_75" type="klaster_car" depart="154" from="-447569998#1" to="399835085#1" color="154,205,50"/>
    <trip id="auto_76" type="klaster_car" depart="155" from="-306240162#1" to="386687235" color="173,216,230"/>
    <trip id="auto_77" type="klaster_car" depart="158" from="24599188#0.94" to="-10427692#3" color="255,215,0"/>
    <trip id="auto_78" type="klaster_car" depart="160" from="176550249#3" to="201238729#3" color="218,112,214"/>
    <trip id="auto_79" type="klaster_car" depart="160" from="-306240162#1" to="24634510#6" color="173,216,230"/>
    <trip id="auto_80" type="klaster_car" depart="164" from="128361109#1" to="386687235" color="173,216,230"/>
    <trip id="auto_81" type="klaster_car" depart="166" from="128361109#1" to="386687235" color="173,216,230"/>
    <trip id="auto_82" type="klaster_car" depart="167" from="-24634413#2" to="32978638#0" color="154,205,50"/>
    <trip id="auto_83" type="klaster_car" depart="169" from="128361109#1" to="386687235" color="173,216,230"/>
    <trip id="auto_84" type="klaster_car" depart="171" from="128361109#1" to="386687235" color="173,216,230"/>
    <trip id="auto_85" type="klaster_car" depart="172" from="128361109#1" to="386687235" color="173,216,230"/>
    <trip id="auto_86" type="klaster_car" depart="176" from="128361109#1" to="399835085#1" color="0,255,0"/>
    <trip id="auto_87" type="klaster_car" depart="178" from="128361109#1" to="386687235" color="173,216,230"/>
    <trip id="auto_88" type="klaster_car" depart="179" from="128361109#1" to="386687235" color="173,216,230"/>
    <trip id="auto_89" type="klaster_car" depart="181" from="-306240162#1" to="386687235" color="173,216,230"/>
    <trip id="auto_90" type="klaster_car" depart="181" from="128361109#1" to="386687235" color="173,216,230"/>
    <trip id="auto_91" type="klaster_car" depart="181" from="315358244" to="32978638#0" color="255,165,0"/>
    <trip id="auto_92" type="klaster_car" depart="183" from="-306240162#1" to="386687235" color="173,216,230"/>
    <trip id="auto_93" type="klaster_car" depart="186" from="-306240162#1" to="386687235" color="173,216,230"/>
    <trip id="auto_94" type="klaster_car" depart="188" from="-306240162#1" to="386687235" color="173,216,230"/>
    <trip id="auto_95" type="klaster_car" depart="189" from="-160314345#5" to="-24634505" color="154,205,50"/>
    <trip id="auto_96" type="klaster_car" depart="189" from="-306240162#1" to="386687235" color="173,216,230"/>
    <trip id="auto_97" type="klaster_car" depart="191" from="-306240162#1" to="386687235" color="173,216,230"/>
    <trip id="auto_98" type="klaster_car" depart="192" from="-306240162#1" to="386687235" color="173,216,230"/>
    <trip id="auto_99" type="klaster_car" depart="194" from="10425609#0" to="-128361102#1" color="255,127,80"/>
    <trip id="auto_100" type="klaster_car" depart="195" from="128361109#1" to="386687235" color="173,216,230"/>
    <trip id="auto_101" type="klaster_car" depart="197" from="24634517#1" to="306240162#0" color="218,112,214"/>
    <trip id="auto_102" type="klaster_car" depart="199" from="-306240162#1" to="386687235" color="173,216,230"/>
    <trip id="auto_103" type="klaster_car" depart="201" from="315358244" to="386687235" color="50,205,50"/>
    <trip id="auto_104" type="klaster_car" depart="203" from="315358244" to="447569997#1" color="50,205,50"/>
    <trip id="auto_105" type="klaster_car" depart="204" from="-306240162#1" to="386687235" color="173,216,230"/>
    <trip id="auto_106" type="klaster_car" depart="204" from="-18809673#6" to="386687235" color="173,216,230"/>
    <trip id="auto_107" type="klaster_car" depart="212" from="-306240162#1" to="386687235" color="173,216,230"/>
    <trip id="auto_108" type="klaster_car" depart="213" from="-306240162#1" to="272042145" color="173,216,230"/>
    <trip id="auto_109" type="klaster_car" depart="220" from="10425609#0" to="306240162#0" color="255,127,80"/>
    <trip id="auto_110" type="klaster_car" depart="221" from="-306240162#1" to="272042145" color="173,216,230"/>
    <trip id="auto_111" type="klaster_car" depart="221" from="201238726#0.117" to="386687235" color="173,216,230"/>
    <trip id="auto_112" type="klaster_car" depart="223" from="272042143" to="201238729#3" color="154,205,50"/>
    <trip id="auto_113" type="klaster_car" depart="225" from="272042143" to="399835085#1" color="154,205,50"/>
    <trip id="auto_114" type="klaster_car" depart="226" from="-306240162#1" to="386687235" color="173,216,230"/>
    <trip id="auto_115" type="klaster_car" depart="226" from="272042143" to="306240162#0" color="154,205,50"/>
    <trip id="auto_116" type="klaster_car" depart="228" from="272042143" to="201238729#3" color="154,205,50"/>
    <trip id="auto_117" type="klaster_car" depart="229" from="-18809673#6" to="386687235" color="173,216,230"/>
    <trip id="auto_118" type="klaster_car" depart="230" from="272042143" to="399835085#1" color="154,205,50"/>
    <trip id="auto_119" type="klaster_car" depart="231" from="272042143" to="306240162#0" color="154,205,50"/>
    <trip id="auto_120" type="klaster_car" depart="233" from="272042143" to="399835085#1" color="154,205,50"/>
    <trip id="auto_121" type="klaster_car" depart="233" from="-306240162#1" to="386687235" color="173,216,230"/>
    <trip id="auto_122" type="klaster_car" depart="234" from="272042143" to="306240162#0" color="154,205,50"/>
    <trip id="auto_123" type="klaster_car" depart="235" from="315358244" to="-201238724" color="50,205,50"/>
    <trip id="auto_124" type="klaster_car" depart="236" from="272042143" to="306240162#0" color="154,205,50"/>
    <trip id="auto_125" type="klaster_car" depart="238" from="272042143" to="201238729#3" color="154,205,50"/>
    <trip id="auto_126" type="klaster_car" depart="238" from="266565295#5" to="-201238724" color="154,205,50"/>
    <trip id="auto_127" type="klaster_car" depart="240" from="28319300#3" to="32978638#0" color="250,128,114"/>
    <trip id="auto_128" type="klaster_car" depart="245" from="-32978638#0" to="306240162#0" color="154,205,50"/>
    <trip id="auto_129" type="klaster_car" depart="245" from="-306240162#1" to="272042145" color="173,216,230"/>
    <trip id="auto_130" type="klaster_car" depart="245" from="-18809673#6" to="-83304175#2" color="250,128,114"/>
    <trip id="auto_131" type="klaster_car" depart="246" from="-32978638#0" to="306240162#0" color="154,205,50"/>
    <trip id="auto_132" type="klaster_car" depart="248" from="128361109#1" to="386687235" color="173,216,230"/>
    <trip id="auto_133" type="klaster_car" depart="248" from="-32978638#0" to="201238729#3" color="154,205,50"/>
    <trip id="auto_134" type="klaster_car" depart="249" from="128361109#1" to="386687235" color="173,216,230"/>
    <trip id="auto_135" type="klaster_car" depart="258" from="-306240162#1" to="386687235" color="173,216,230"/>
    <trip id="auto_136" type="klaster_car" depart="260" from="128361109#1" to="386687235" color="173,216,230"/>
    <trip id="auto_137" type="klaster_car" depart="261" from="-399835085#0" to="201238729#3" color="154,205,50"/>
    <trip id="auto_138" type="klaster_car" depart="262" from="315358244" to="26677541" color="50,205,50"/>
    <trip id="auto_139" type="klaster_car" depart="264" from="-160314345#2" to="386687235" color="255,255,0"/>
    <trip id="auto_140" type="klaster_car" depart="265" from="-306240162#1" to="201238718#0" color="173,216,230"/>
    <trip id="auto_141" type="klaster_car" depart="267" from="128361109#1" to="386687235" color="173,216,230"/>
    <trip id="auto_142" type="klaster_car" depart="267" from="-306240162#1" to="386687235" color="173,216,230"/>
    <trip id="auto_143" type="klaster_car" depart="268" from="168702040#1" to="-25145014#0" color="255,215,0"/>
    <trip id="auto_144" type="klaster_car" depart="269" from="-306240162#1" to="386687235" color="173,216,230"/>
    <trip id="auto_145" type="klaster_car" depart="269" from="128361109#1" to="386687235" color="173,216,230"/>
    <trip id="auto_146" type="klaster_car" depart="271" from="128361109#1" to="24634509#1" color="173,216,230"/>
    <trip id="auto_147" type="klaster_car" depart="272" from="128361109#1" to="386687235" color="173,216,230"/>
    <trip id="auto_148" type="klaster_car" depart="280" from="-306240162#1" to="30482615#1" color="173,216,230"/>
    <trip id="auto_149" type="klaster_car" depart="281" from="10425609#0" to="-128361102#1" color="255,127,80"/>
    <trip id="auto_150" type="klaster_car" depart="283" from="128361109#1" to="386687235" color="173,216,230"/>
    <trip id="auto_151" type="klaster_car" depart="285" from="128361109#1" to="386687235" color="173,216,230"/>
    <trip id="auto_152" type="klaster_car" depart="286" from="-32978638#0" to="447569997#1" color="154,205,50"/>
    <trip id="auto_153" type="klaster_car" depart="288" from="-32978638#0" to="-315358242#1" color="154,205,50"/>
    <trip id="auto_154" type="klaster_car" depart="289" from="128361109#1" to="-315358242#0" color="250,128,114"/>
    <trip id="auto_155" type="klaster_car" depart="289" from="-32978638#0" to="201238729#3" color="154,205,50"/>
    <trip id="auto_156" type="klaster_car" depart="292" from="266565295#5" to="201238729#3" color="154,205,50"/>
    <trip id="auto_157" type="klaster_car" depart="292" from="-306240162#1" to="402600768#1" color="250,128,114"/>
    <trip id="auto_158" type="klaster_car" depart="293" from="24634416" to="32978638#0" color="250,128,114"/>
    <trip id="auto_159" type="klaster_car" depart="293" from="-306240162#1" to="386687235" color="173,216,230"/>
    <trip id="auto_160" type="klaster_car" depart="295" from="-306240162#1" to="386687235" color="173,216,230"/>
    <trip id="auto_161" type="klaster_car" depart="296" from="-306240162#1" to="386687235" color="173,216,230"/>
    <trip id="auto_162" type="klaster_car" depart="298" from="-306240162#1" to="386687235" color="173,216,230"/>
    <trip id="auto_163" type="klaster_car" depart="299" from="128361109#1" to="386687235" color="173,216,230"/>
    <trip id="auto_164" type="klaster_car" depart="301" from="128361109#1" to="386687235" color="173,216,230"/>
    <trip id="auto_165" type="klaster_car" depart="305" from="-32978638#0" to="28319300#3" color="255,0,0"/>
    <trip id="auto_166" type="klaster_car" depart="305" from="-18809673#6" to="-266565295#5" color="250,128,114"/>
    <trip id="auto_167" type="klaster_car" depart="306" from="-24634509#7" to="201238729#3" color="218,112,214"/>
    <trip id="auto_168" type="klaster_car" depart="307" from="-137454133#5" to="201238729#3" color="218,112,214"/>
    <trip id="auto_169" type="klaster_car" depart="308" from="-306240162#1" to="-201963533#4" color="250,128,114"/>
    <trip id="auto_170" type="klaster_car" depart="315" from="315358244" to="386687235" color="50,205,50"/>
    <trip id="auto_171" type="klaster_car" depart="317" from="315358244" to="386687235" color="50,205,50"/>
    <trip id="auto_172" type="klaster_car" depart="320" from="-306240162#1" to="386687235" color="173,216,230"/>
    <trip id="auto_173" type="klaster_car" depart="320" from="315358244" to="386687235" color="50,205,50"/>
    <trip id="auto_174" type="klaster_car" depart="323" from="266565295#5" to="24608845" color="255,0,0"/>
    <trip id="auto_175" type="klaster_car" depart="323" from="-306240162#1" to="-25190140#1" color="250,128,114"/>
    <trip id="auto_176" type="klaster_car" depart="324" from="315358244" to="30482615#1" color="50,205,50"/>
    <trip id="auto_177" type="klaster_car" depart="324" from="-306240162#1" to="137454133#2" color="0,255,0"/>
    <trip id="auto_178" type="klaster_car" depart="326" from="266565295#5" to="201238729#3" color="255,0,0"/>
    <trip id="auto_179" type="klaster_car" depart="329" from="-315358257#0.26" to="306240162#0" color="218,112,214"/>
    <trip id="auto_180" type="klaster_car" depart="329" from="266565295#5" to="201238729#3" color="255,0,0"/>
    <trip id="auto_181" type="klaster_car" depart="330" from="266565295#5" to="201238729#3" color="255,0,0"/>
    <trip id="auto_182" type="klaster_car" depart="331" from="-32978638#0" to="306240162#0" color="255,0,0"/>
    <trip id="auto_183" type="klaster_car" depart="332" from="-18809673#6" to="386687235" color="255,20,147"/>
    <trip id="auto_184" type="klaster_car" depart="335" from="128361109#1" to="386687235" color="255,20,147"/>
    <trip id="auto_185" type="klaster_car" depart="335" from="-32978638#0" to="447569997#1" color="255,0,0"/>
    <trip id="auto_186" type="klaster_car" depart="335" from="24599188#0.94" to="201201950#1" color="255,127,80"/>
    <trip id="auto_187" type="klaster_car" depart="336" from="128361109#1" to="386687235" color="255,20,147"/>
    <trip id="auto_188" type="klaster_car" depart="337" from="-32978638#0" to="201238729#3" color="255,0,0"/>
    <trip id="auto_189" type="klaster_car" depart="338" from="-32978638#0" to="306240162#0" color="255,0,0"/>
    <trip id="auto_190" type="klaster_car" depart="339" from="10425609#0" to="-128361102#1" color="255,127,80"/>
    <trip id="auto_191" type="klaster_car" depart="340" from="-18809673#6" to="40888354#1" color="250,128,114"/>
    <trip id="auto_192" type="klaster_car" depart="340" from="128361109#1" to="386687235" color="255,20,147"/>
    <trip id="auto_193" type="klaster_car" depart="342" from="128361109#1" to="399835085#1" color="0,255,0"/>
    <trip id="auto_194" type="klaster_car" depart="343" from="10425609#0" to="306240162#0" color="255,127,80"/>
    <trip id="auto_195" type="klaster_car" depart="346" from="10425609#0" to="-128361102#1" color="255,127,80"/>
    <trip id="auto_196" type="klaster_car" depart="347" from="128361109#1" to="386687235" color="255,20,147"/>
    <trip id="auto_197" type="klaster_car" depart="347" from="315358244" to="32978638#0" color="255,165,0"/>
    <trip id="auto_198" type="klaster_car" depart="348" from="-447569998#1" to="40888356#0" color="50,205,50"/>
    <trip id="auto_199" type="klaster_car" depart="351" from="128361109#1" to="386687235" color="255,20,147"/>
    <trip id="auto_200" type="klaster_car" depart="351" from="-306240162#1" to="386687235" color="255,20,147"/>
    <trip id="auto_201" type="klaster_car" depart="353" from="128361109#1" to="386687235" color="255,20,147"/>
    <trip id="auto_202" type="klaster_car" depart="354" from="-306240162#1" to="272042145" color="255,20,147"/>
    <trip id="auto_203" type="klaster_car" depart="355" from="315358244" to="32978638#0" color="255,165,0"/>
    <trip id="auto_204" type="klaster_car" depart="356" from="-306240162#1" to="272042145" color="255,20,147"/>
    <trip id="auto_205" type="klaster_car" depart="357" from="-306240162#1" to="272042145" color="255,20,147"/>
    <trip id="auto_206" type="klaster_car" depart="359" from="-306240162#1" to="272042145" color="255,20,147"/>
    <trip id="auto_207" type="klaster_car" depart="362" from="-306240162#1" to="138300620#0" color="250,128,114"/>
    <trip id="auto_208" type="klaster_car" depart="366" from="128361109#1" to="386687235" color="255,20,147"/>
    <trip id="auto_209" type="klaster_car" depart="368" from="-306240162#1" to="272042145" color="255,20,147"/>
    <trip id="auto_210" type="klaster_car" depart="370" from="-26677216#0" to="386687235" color="50,205,50"/>
    <trip id="auto_211" type="klaster_car" depart="374" from="128361109#1" to="386687235" color="255,20,147"/>
    <trip id="auto_212" type="klaster_car" depart="375" from="286646456#1" to="272042145" color="255,20,147"/>
    <trip id="auto_213" type="klaster_car" depart="376" from="315358244" to="-201238718#0" color="50,205,50"/>
    <trip id="auto_214" type="klaster_car" depart="377" from="-32978638#0" to="306240162#0" color="255,0,0"/>
    <trip id="auto_215" type="klaster_car" depart="378" from="10425609#0" to="306240162#0" color="255,127,80"/>
    <trip id="auto_216" type="klaster_car" depart="379" from="128361109#1" to="32978638#0" color="250,128,114"/>
    <trip id="auto_217" type="klaster_car" depart="380" from="128361109#1" to="-22724699#1" color="250,128,114"/>
    <trip id="auto_218" type="klaster_car" depart="381" from="266565295#5" to="201238729#3" color="255,0,0"/>
    <trip id="auto_219" type="klaster_car" depart="382" from="128361109#1" to="386687235" color="255,20,147"/>
    <trip id="auto_220" type="klaster_car" depart="382" from="10425609#0" to="-128361102#1" color="255,127,80"/>
    <trip id="auto_221" type="klaster_car" depart="383" from="201201935#0" to="-32395288#1" color="250,128,114"/>
    <trip id="auto_222" type="klaster_car" depart="383" from="266565295#5" to="201238729#3" color="255,0,0"/>
    <trip id="auto_223" type="klaster_car" depart="384" from="128361109#1" to="386687235" color="255,20,147"/>
    <trip id="auto_224" type="klaster_car" depart="386" from="128361109#1" to="386687235" color="255,20,147"/>
    <trip id="auto_225" type="klaster_car" depart="387" from="128361109#1" to="272042145" color="255,20,147"/>
    <trip id="auto_226" type="klaster_car" depart="389" from="128361109#1" to="386687235" color="255,20,147"/>
    <trip id="auto_227" type="klaster_car" depart="390" from="-24634414#1" to="306240162#0" color="255,0,0"/>
    <trip id="auto_228" type="klaster_car" depart="395" from="-306240162#1" to="272042145" color="255,20,147"/>
    <trip id="auto_229" type="klaster_car" depart="396" from="-32978638#0" to="-266565295#5" color="250,128,114"/>
    <trip id="auto_230" type="klaster_car" depart="398" from="-306240162#1" to="399835085#1" color="0,255,0"/>
    <trip id="auto_231" type="klaster_car" depart="399" from="128361109#1" to="386687235" color="255,20,147"/>
    <trip id="auto_232" type="klaster_car" depart="399" from="-306240162#1" to="272042145" color="255,20,147"/>
    <trip id="auto_233" type="klaster_car" depart="400" from="-306240162#1" to="272042145" color="255,20,147"/>
    <trip id="auto_234" type="klaster_car" depart="402" from="-306240162#1" to="272042145" color="255,20,147"/>
    <trip id="auto_235" type="klaster_car" depart="403" from="-306240162#1" to="272042145" color="255,20,147"/>
    <trip id="auto_236" type="klaster_car" depart="411" from="-306240162#1" to="272042145" color="255,20,147"/>
    <trip id="auto_237" type="klaster_car" depart="412" from="-306240162#1" to="-266565295#5" color="250,128,114"/>
    <trip id="auto_238" type="klaster_car" depart="413" from="23166741#2" to="201238729#3" color="255,0,0"/>
    <trip id="auto_239" type="klaster_car" depart="413" from="-24634510#5" to="272042145" color="50,205,50"/>
    <trip id="auto_240" type="klaster_car" depart="414" from="201238719#0" to="32978638#0" color="250,128,114"/>
    <trip id="auto_241" type="klaster_car" depart="414" from="-306240162#1" to="32978638#0" color="250,128,114"/>
    <trip id="auto_242" type="klaster_car" depart="418" from="24634513#0" to="272042145" color="50,205,50"/>
    <trip id="auto_243" type="klaster_car" depart="419" from="128361109#1" to="386687235" color="255,20,147"/>
    <trip id="auto_244" type="klaster_car" depart="423" from="-306240162#1" to="306240162#0" color="0,255,0"/>
    <trip id="auto_245" type="klaster_car" depart="423" from="-306240162#1" to="272042145" color="255,20,147"/>
    <trip id="auto_246" type="klaster_car" depart="424" from="-32978638#0" to="306240162#0" color="255,0,0"/>
    <trip id="auto_247" type="klaster_car" depart="427" from="128361109#1" to="386687235" color="255,20,147"/>
    <trip id="auto_248" type="klaster_car" depart="429" from="40888360#0" to="272042145" color="50,205,50"/>
    <trip id="auto_249" type="klaster_car" depart="429" from="128361109#1" to="272042145" color="255,20,147"/>
    <trip id="auto_250" type="klaster_car" depart="434" from="-32978638#0" to="306240162#0" color="255,0,0"/>
    <trip id="auto_251" type="klaster_car" depart="435" from="315358244" to="386687235" color="50,205,50"/>
    <trip id="auto_252" type="klaster_car" depart="438" from="128361109#1" to="272042145" color="255,20,147"/>
    <trip id="auto_253" type="klaster_car" depart="446" from="10425609#0" to="-128361102#1" color="255,127,80"/>
    <trip id="auto_254" type="klaster_car" depart="448" from="10425609#0" to="-128361102#1" color="255,127,80"/>
    <trip id="auto_255" type="klaster_car" depart="450" from="-18809673#6" to="-266565295#5" color="250,128,114"/>
    <trip id="auto_256" type="klaster_car" depart="450" from="128361109#1" to="272042145" color="255,20,147"/>
    <trip id="auto_257" type="klaster_car" depart="450" from="10425609#0" to="-218647954" color="255,215,0"/>
    <trip id="auto_258" type="klaster_car" depart="451" from="128361109#1" to="399835085#1" color="0,255,0"/>
    <trip id="auto_259" type="klaster_car" depart="452" from="10425609#0" to="-128361102#1" color="255,127,80"/>
    <trip id="auto_260" type="klaster_car" depart="453" from="24634416" to="32978638#0" color="255,0,0"/>
    <trip id="auto_261" type="klaster_car" depart="453" from="128361109#1" to="32978638#0" color="250,128,114"/>
    <trip id="auto_262" type="klaster_car" depart="455" from="10425609#0" to="-128361102#1" color="255,127,80"/>
    <trip id="auto_263" type="klaster_car" depart="456" from="-306240162#1" to="272042145" color="255,20,147"/>
    <trip id="auto_264" type="klaster_car" depart="458" from="-306240162#1" to="272042145" color="255,20,147"/>
    <trip id="auto_265" type="klaster_car" depart="459" from="-306240162#1" to="-266565295#5" color="250,128,114"/>
    <trip id="auto_266" type="klaster_car" depart="462" from="24634510#1" to="272042145" color="255,20,147"/>
    <trip id="auto_267" type="klaster_car" depart="462" from="24599188#0.94" to="399835085#1" color="255,127,80"/>